53
acpm_designed_metile_s0_opt.out	Energy: -757455.0672895
C         -2.41763        4.10743        6.19404
C         -1.22901        3.91774        5.27940
C         -0.31811        4.97770        5.13186
N         -0.61567        6.21285        5.74199
C         -1.97668        6.55601        5.93419
C         -2.91558        5.53441        6.13815
C          0.80942        4.81009        4.31707
C          1.08674        3.60650        3.66526
C          0.17089        2.53268        3.81646
C         -0.97607        2.73111        4.60612
C         -2.34768        7.91149        5.90837
C         -1.27529        8.93536        5.52075
C          0.04225        8.50700        6.17653
C          0.36248        7.13392        6.18425
C          0.97323        9.40300        6.71235
C          2.20008        8.96760        7.21641
C          2.50759        7.60618        7.20393
C          1.58681        6.68947        6.70425
C         -4.25350        5.88089        6.32555
C         -4.63969        7.22123        6.34533
C         -3.69015        8.22517        6.14212
C          0.34537        1.20036        3.18736
N         -0.77595        0.47510        2.97715
C         -0.62564       -0.73396        2.43444
C          0.61994       -1.25131        2.07955
C          1.71314       -0.42942        2.34014
N          1.59204        0.78134        2.89284
C         -1.67755       10.36989        5.89556
C         -1.08785        8.86872        3.97644
H         -1.53722       -1.30771        2.27321
H          2.72649       -0.75195        2.10543
H          0.72975       -2.23288        1.63215
H         -1.67883        1.91016        4.70433
H          1.48065        5.65066        4.17449
C          2.31961        3.55033        2.79069
H          1.80434        5.62700        6.72606
H          3.45414        7.25136        7.60228
H          2.90818        9.68840        7.61511
H          0.74872       10.46364        6.72960
H         -4.01151        9.26077        6.14459
H         -5.68022        7.48646        6.50985
H         -4.98883        5.09443        6.47789
H         -2.60376       10.65481        5.38828
H         -1.82459       10.48052        6.97513
H         -0.91314       11.08308        5.57357
H         -0.80118        7.86333        3.65362
H         -2.02275        9.13746        3.47168
H         -0.30400        9.56742        3.66220
H         -3.21915        3.40483        5.94141
H         -2.11688        3.87454        7.22884
H          2.73133        4.55534        2.65215
H          3.09246        2.91298        3.22937
H          2.09841        3.12730        1.80609
