53
acpm_designed_metile_t1_freq.out	Energy: -757396.3166150
C         -2.53716        4.12470        6.00734
C         -1.30805        3.91772        5.15964
C         -0.36001        4.98739        5.08081
N         -0.66450        6.21819        5.66099
C         -2.01843        6.58164        5.87122
C         -2.97793        5.56784        6.02829
C          0.81261        4.81441        4.27476
C          1.10629        3.64569        3.62507
C          0.18890        2.50109        3.77558
C         -1.03621        2.73928        4.53047
C         -2.35508        7.94836        5.91084
C         -1.26880        8.96988        5.56314
C          0.04456        8.48459        6.17871
C          0.32681        7.10124        6.14583
C          1.01166        9.33376        6.71892
C          2.22622        8.84180        7.20648
C          2.48614        7.47051        7.17358
C          1.53632        6.59725        6.65531
C         -4.30278        5.93999        6.25618
C         -4.65630        7.28599        6.33296
C         -3.68819        8.27939        6.15851
C          0.39628        1.19743        3.23673
N         -0.62482        0.27411        3.41914
C         -0.43765       -0.93834        2.92872
C          0.72737       -1.32867        2.24868
C          1.71330       -0.33089        2.11693
N          1.57355        0.89434        2.58599
C         -1.63790       10.39087        6.01744
C         -1.10155        8.97968        4.01356
H         -1.25074       -1.65062        3.07886
H          2.65319       -0.54949        1.60780
H          0.86072       -2.33011        1.85583
H         -1.73788        1.91800        4.60203
H          1.46476        5.67048        4.13405
C          2.33194        3.61893        2.74330
H          1.70773        5.52706        6.66508
H          3.41738        7.07613        7.56921
H          2.95977        9.52941        7.61683
H          0.82685       10.40078        6.76164
H         -3.98984        9.31943        6.20017
H         -5.68928        7.56710        6.51592
H         -5.05593        5.16647        6.38168
H         -2.56242       10.72053        5.53568
H         -1.77051       10.44745        7.10276
H         -0.86306       11.10406        5.72285
H         -0.83649        7.98851        3.63334
H         -2.03790        9.29085        3.53781
H         -0.30992        9.68098        3.72764
H         -3.35209        3.47526        5.67070
H         -2.31003        3.81579        7.04121
H          2.79468        4.61192        2.71611
H          3.07091        2.89315        3.09327
H          2.08343        3.31950        1.72023
