53
acpm_designed_metile_s1_opt.out	Energy: -757450.5520012
C         -2.53262        4.13519        5.98566
C         -1.26548        3.90900        5.20574
C         -0.36693        4.97472        5.05457
N         -0.67994        6.25123        5.63874
C         -2.01655        6.60696        5.80680
C         -2.97792        5.57456        5.94705
C          0.75573        4.82785        4.21282
C          1.06604        3.62375        3.59637
C          0.20190        2.48521        3.81107
C         -0.97234        2.69974        4.60092
C         -2.36524        7.97830        5.89064
C         -1.27499        9.01055        5.61381
C          0.03183        8.49588        6.21318
C          0.31152        7.10588        6.12255
C          1.01147        9.32103        6.75781
C          2.23524        8.80740        7.20534
C          2.49789        7.43748        7.11064
C          1.54685        6.58438        6.57150
C         -4.30536        5.94085        6.15694
C         -4.66775        7.28429        6.23727
C         -3.70114        8.29268        6.10766
C          0.41464        1.15654        3.26467
N         -0.57757        0.21791        3.50584
C         -0.38270       -0.99874        3.02193
C          0.75463       -1.37888        2.29615
C          1.70915       -0.35960        2.10683
N          1.56104        0.87086        2.56812
C         -1.64980       10.40888        6.13098
C         -1.08494        9.09519        4.06522
H         -1.17439       -1.72524        3.21901
H          2.63083       -0.56051        1.55753
H          0.89098       -2.38335        1.91210
H         -1.66212        1.87146        4.70772
H          1.38688        5.69074        4.02411
C          2.28699        3.60287        2.70497
H          1.72455        5.51770        6.52435
H          3.43844        7.03198        7.47015
H          2.97626        9.47859        7.62833
H          0.83447       10.38681        6.83849
H         -4.01444        9.32797        6.16698
H         -5.70593        7.55647        6.40101
H         -5.05613        5.16433        6.27301
H         -2.56705       10.76209        5.65270
H         -1.79644       10.41210        7.21571
H         -0.87170       11.13453        5.88042
H         -0.81540        8.12336        3.64108
H         -2.01530        9.43096        3.59547
H         -0.28908        9.80897        3.82822
H         -3.33038        3.48062        5.61754
H         -2.38124        3.85388        7.04159
H          2.72918        4.60442        2.64720
H          3.04412        2.90266        3.06853
H          2.04022        3.26835        1.69281
