47
tn4t_t1_opt_freq.log	Energy: -1047769.7944349
C          0.52535       -0.04259        1.24956
C          0.55488        1.17668        1.88660
C          0.01165        1.30948        3.21340
C         -0.52653        0.08972        3.75693
C         -0.49091       -1.06896        3.01580
N          0.01803       -1.18782        1.76589
C          0.00684        2.53838        3.92547
C          0.58851        3.75461        3.37774
C          0.57417        4.93834        4.06244
C         -0.00365        5.02460        5.36611
C         -0.57610        3.84698        5.93739
C         -0.58046        2.66425        5.25094
N         -0.00924        6.23376        6.06701
C         -0.35785        7.48997        5.54121
C         -0.23688        8.46623        6.56101
C          0.19848        7.77229        7.76093
C          0.33160        6.40343        7.42015
C          0.50494        8.19622        9.05227
C          0.94607        7.25206        9.98467
C          1.10124        5.90422        9.62480
C          0.80856        5.46001        8.33460
C         -0.83236        7.81177        4.26644
C         -1.13504        9.14988        4.01068
C         -0.99202       10.13245        5.00285
C         -0.55318        9.79519        6.28701
C         -1.04752       -2.35955        3.56935
F         -0.10215       -3.32385        3.62222
F         -2.05226       -2.83505        2.80052
F         -1.53849       -2.21038        4.82284
C          1.08748       -0.20279       -0.14341
F          1.58228        0.95885       -0.63354
F          0.14501       -0.63364       -1.01087
F          2.09088       -1.10795       -0.17084
H          0.98784        2.02153        1.36969
H         -0.96007        0.05898        4.74656
H          1.07428        3.72910        2.41039
H          1.05656        5.81389        3.64019
H         -1.06259        3.91302        6.90514
H         -1.06303        1.80952        5.70810
H          0.41229        9.24320        9.32556
H          1.18609        7.56762       10.99542
H          1.46662        5.19200       10.35829
H          0.96225        4.42489        8.05332
H         -0.97713        7.05262        3.50685
H         -1.49908        9.43015        3.02696
H         -1.23987       11.16451        4.77425
H         -0.47002       10.55275        7.06078
