47
tn4t_s1_freq.log	Energy: -1047769.1181930
C         -0.98481       -0.24257        1.61724
C         -1.02902        0.96950        2.26856
C         -0.01806        1.31747        3.22382
C          0.97984        0.30293        3.39835
C          0.91376       -0.87022        2.68097
N         -0.04127       -1.20276        1.77804
C         -0.00709        2.56531        3.93974
C         -0.94803        3.61061        3.66512
C         -0.94283        4.80891        4.35179
C          0.01028        5.03192        5.35996
C          0.95587        4.03867        5.66630
C          0.94470        2.84352        4.97425
N          0.01596        6.27673        6.08147
C          0.72646        7.40514        5.72390
C          0.48363        8.43482        6.67649
C         -0.43539        7.86688        7.66207
C         -0.68856        6.53073        7.24152
C         -1.04324        8.33762        8.81051
C         -1.89741        7.46727        9.52542
C         -2.13633        6.15443        9.09768
C         -1.53287        5.65896        7.94147
C          1.56789        7.57492        4.61660
C          2.17902        8.82061        4.47101
C          1.95018        9.84481        5.39972
C          1.09877        9.66153        6.51310
C          1.96511       -1.93437        2.86062
F          2.60079       -2.21911        1.69776
F          1.43361       -3.10142        3.30139
F          2.92467       -1.58123        3.75389
C         -2.05198       -0.61138        0.61951
F         -2.99364        0.35591        0.47414
F         -2.70772       -1.74346        0.97497
F         -1.53536       -0.84000       -0.61298
H         -1.84851        1.64159        2.05294
H          1.80620        0.44416        4.08172
H         -1.68940        3.47941        2.88514
H         -1.66856        5.58200        4.11460
H          1.68815        4.21414        6.44959
H          1.68112        2.09596        5.24646
H         -0.87455        9.34967        9.16326
H         -2.37893        7.82862       10.42796
H         -2.79793        5.51520        9.67164
H         -1.69954        4.64851        7.58763
H          1.72655        6.76526        3.91428
H          2.83873        8.99768        3.62887
H          2.43748       10.80455        5.26394
H          0.93774       10.47115        7.21725
