59
tn4t_designed_t1.log	Energy: -1193481.4648198
C         -0.15629        0.32721        1.15738
C          0.00116        1.62838        1.64193
C          0.55737        1.79065        2.96319
C          0.93769        0.57666        3.62287
C          0.76519       -0.63754        3.00373
N          0.20299       -0.80779        1.79218
C          0.62608        3.02779        3.71011
C          0.98976        4.36764        3.19632
C          0.71074        5.47779        3.97748
C          0.18235        5.28888        5.29411
C         -0.01679        4.00012        5.89627
C          0.24661        2.91918        5.11061
N         -0.07731        6.38088        6.06331
C          0.10390        7.68747        5.67904
C         -0.29564        8.55690        6.72098
C         -0.73770        7.68262        7.82007
C         -0.56922        6.35753        7.34983
C         -1.23358        7.82076        9.11527
C         -1.52114        6.65444        9.84825
C         -1.32538        5.35983        9.33087
C         -0.82986        5.18095        8.03490
C          0.63046        8.02815        4.44549
C          0.74695        9.40474        4.22568
C          0.35247       10.32085        5.22028
C         -0.16324        9.92137        6.46732
C          1.20891       -1.91963        3.66405
F          2.13870       -2.56787        2.92472
F          0.17704       -2.77824        3.83187
F          1.75214       -1.70661        4.88754
C         -0.85542        0.07082       -0.16988
F         -2.15079        0.49283       -0.14180
F         -0.87771       -1.22805       -0.50119
F         -0.26859        0.72731       -1.20795
H          1.41452        0.61159        4.59405
C          1.85546        4.62665        1.96218
C          1.04232        6.90559        3.50931
C         -0.54058        3.86814        7.32933
H          0.03608        1.93207        5.50786
H         -1.39616        8.79853        9.55825
H         -1.90735        6.75639       10.85811
H         -1.55952        4.49653        9.94785
H          1.14882        9.77541        3.28658
H          0.45731       11.38258        5.01736
H         -0.44413       10.66567        7.20609
C          2.06597        3.57124        0.87351
H          1.47832        5.52420        1.45479
H          2.84868        4.91510        2.34305
C         -0.38398        2.83596        0.82296
H          0.18918        3.29477        7.91805
H         -1.44960        3.25153        7.31973
H          0.58357        7.07738        2.52620
H          2.12503        6.98059        3.32967
C          0.82434        3.34510        0.00902
H         -0.73968        3.62667        1.49161
H         -1.20976        2.61050        0.14691
H          2.41284        2.62636        1.30460
H          2.88104        3.92888        0.23160
H          0.54672        4.28472       -0.48863
H          1.05282        2.61899       -0.77626
