59
tn4t_designed_s1.log	Energy: -1193536.4228835
C          0.45505        0.27327        1.07352
C         -0.04750        1.40552        1.71318
C          0.36994        1.59419        3.09857
C          1.06658        0.53780        3.70691
C          1.42844       -0.57646        2.97298
N          1.19228       -0.71195        1.62382
C          0.26474        2.87415        3.83253
C          0.84992        4.07139        3.30525
C          0.76463        5.25787        4.03694
C          0.14486        5.20071        5.30614
C         -0.40594        4.03774        5.88109
C         -0.34218        2.88722        5.10700
N          0.05274        6.36972        6.03532
C          0.50315        7.59343        5.62388
C          0.21683        8.56523        6.61450
C         -0.46017        7.83396        7.70157
C         -0.52862        6.48586        7.26977
C         -1.01135        8.10989        8.94666
C         -1.58892        7.04452        9.67274
C         -1.63356        5.72509        9.19321
C         -1.09056        5.40816        7.94172
C          1.13016        7.78552        4.40080
C          1.50726        9.10988        4.14632
C          1.25049       10.11488        5.09410
C          0.61022        9.86678        6.32889
C          2.16017       -1.71444        3.59040
F          3.37908       -1.93225        3.01931
F          1.49328       -2.89835        3.47225
F          2.38545       -1.53081        4.91988
C          0.19357        0.05396       -0.40863
F         -1.11471       -0.23059       -0.67280
F          0.91482       -0.95205       -0.92863
F          0.49296        1.16261       -1.14920
H          1.36527        0.61698        4.74756
C          1.51095        4.02856        1.94587
C          1.34005        6.57800        3.51087
C         -1.05598        4.05371        7.26401
H         -0.77489        1.96368        5.48106
H         -1.00602        9.11233        9.36208
H         -2.02080        7.25708       10.64570
H         -2.09568        4.95057        9.79793
H          2.00359        9.36596        3.21504
H          1.55885       11.13080        4.86780
H          0.43501       10.68108        7.02434
C          0.52180        4.29559        0.77179
H          2.32941        4.75412        1.89254
H          1.96359        3.04323        1.81934
C         -1.11832        2.28358        1.08824
H         -0.53074        3.33739        7.91216
H         -2.07932        3.66144        7.18063
H          0.92206        6.78536        2.51700
H          2.41910        6.45111        3.34117
C         -0.91100        3.81881        1.03788
H         -2.05324        2.10139        1.64149
H         -1.31691        1.94654        0.07297
H          0.91521        3.81546       -0.13231
H          0.48954        5.37416        0.56875
H         -1.26640        4.27746        1.96738
H         -1.56415        4.21037        0.24732
